<?xml version="1.0" encoding="UTF-8"?>

<!-- generated on 2023-07-20 20:03:01 by Eclipse SUMO netconvert Version 1.14.1
<configuration xmlns:xsi="http://www.w3.org/2001/XMLSchema-instance" xsi:noNamespaceSchemaLocation="http://sumo.dlr.de/xsd/netconvertConfiguration.xsd">

    <input>
        <sumo-net-file value="cropped.net.xml"/>
    </input>

    <output>
        <output-file value="CBD.net.xml"/>
        <output.street-names value="true"/>
    </output>

    <processing>
        <geometry.min-radius.fix.railways value="false"/>
        <geometry.max-grade.fix value="false"/>
        <offset.disable-normalization value="true"/>
        <lefthand value="false"/>
    </processing>

    <edge_removal>
        <keep-edges.in-boundary value="3391.15,5069.85 2606.72,4688.43 2441.20,4472.53 3542.28,2371.13 4513.81,2860.49 3390.26,5069.32"/>
    </edge_removal>

    <junctions>
        <no-turnarounds value="true"/>
        <junctions.corner-detail value="5"/>
        <junctions.limit-turn-speed value="5.5"/>
        <rectangular-lane-cut value="false"/>
    </junctions>

    <pedestrian>
        <walkingareas value="false"/>
    </pedestrian>

</configuration>
-->

<net version="1.9" junctionCornerDetail="5" limitTurnSpeed="5.50" xmlns:xsi="http://www.w3.org/2001/XMLSchema-instance" xsi:noNamespaceSchemaLocation="http://sumo.dlr.de/xsd/net_file.xsd">

    <location netOffset="-515834.14,-3998918.91" convBoundary="2290.37,2361.96,4503.22,5132.48" origBoundary="-87.221767,36.108413,-86.638711,36.320413" projParameter="+proj=utm +zone=16 +ellps=WGS84 +datum=WGS84 +units=m +no_defs"/>

    <type id="highway.bridleway" priority="1" numLanes="1" speed="2.78" allow="pedestrian" oneway="1" width="2.00"/>
    <type id="highway.bus_guideway" priority="1" numLanes="1" speed="27.78" allow="bus" oneway="1"/>
    <type id="highway.cycleway" priority="1" numLanes="1" speed="5.56" allow="bicycle" oneway="0" width="1.00"/>
    <type id="highway.footway" priority="1" numLanes="1" speed="2.78" allow="pedestrian" oneway="1" width="2.00"/>
    <type id="highway.ford" priority="1" numLanes="1" speed="2.78" allow="army" oneway="0"/>
    <type id="highway.living_street" priority="2" numLanes="1" speed="2.78" disallow="tram rail_urban rail rail_electric rail_fast ship" oneway="0"/>
    <type id="highway.motorway" priority="14" numLanes="2" speed="39.44" allow="private emergency authority army vip passenger hov taxi bus coach delivery truck trailer motorcycle evehicle custom1 custom2" oneway="1"/>
    <type id="highway.motorway_link" priority="9" numLanes="1" speed="22.22" allow="private emergency authority army vip passenger hov taxi bus coach delivery truck trailer motorcycle evehicle custom1 custom2" oneway="1"/>
    <type id="highway.path" priority="1" numLanes="1" speed="5.56" allow="pedestrian bicycle" oneway="0" width="2.00"/>
    <type id="highway.pedestrian" priority="1" numLanes="1" speed="2.78" allow="pedestrian" oneway="1" width="2.00"/>
    <type id="highway.primary" priority="12" numLanes="2" speed="27.78" disallow="tram rail_urban rail rail_electric rail_fast ship" oneway="0"/>
    <type id="highway.primary_link" priority="7" numLanes="1" speed="22.22" disallow="tram rail_urban rail rail_electric rail_fast ship" oneway="0"/>
    <type id="highway.raceway" priority="15" numLanes="2" speed="83.33" allow="vip" oneway="0"/>
    <type id="highway.residential" priority="3" numLanes="1" speed="13.89" disallow="tram rail_urban rail rail_electric rail_fast ship" oneway="0"/>
    <type id="highway.secondary" priority="11" numLanes="1" speed="27.78" disallow="tram rail_urban rail rail_electric rail_fast ship" oneway="0"/>
    <type id="highway.secondary_link" priority="6" numLanes="1" speed="22.22" disallow="tram rail_urban rail rail_electric rail_fast ship" oneway="0"/>
    <type id="highway.service" priority="1" numLanes="1" speed="5.56" allow="pedestrian delivery bicycle" oneway="0"/>
    <type id="highway.stairs" priority="1" numLanes="1" speed="1.39" allow="pedestrian" oneway="1" width="2.00"/>
    <type id="highway.step" priority="1" numLanes="1" speed="1.39" allow="pedestrian" oneway="1" width="2.00"/>
    <type id="highway.steps" priority="1" numLanes="1" speed="1.39" allow="pedestrian" oneway="1" width="2.00"/>
    <type id="highway.tertiary" priority="10" numLanes="1" speed="22.22" disallow="tram rail_urban rail rail_electric rail_fast ship" oneway="0"/>
    <type id="highway.tertiary_link" priority="5" numLanes="1" speed="22.22" disallow="tram rail_urban rail rail_electric rail_fast ship" oneway="0"/>
    <type id="highway.track" priority="1" numLanes="1" speed="5.56" allow="pedestrian motorcycle moped bicycle" oneway="0"/>
    <type id="highway.trunk" priority="13" numLanes="2" speed="27.78" disallow="pedestrian bicycle tram rail_urban rail rail_electric rail_fast ship" oneway="0"/>
    <type id="highway.trunk_link" priority="8" numLanes="1" speed="22.22" disallow="pedestrian bicycle tram rail_urban rail rail_electric rail_fast ship" oneway="0"/>
    <type id="highway.unclassified" priority="4" numLanes="1" speed="13.89" disallow="tram rail_urban rail rail_electric rail_fast ship" oneway="0"/>
    <type id="highway.unsurfaced" priority="1" numLanes="1" speed="8.33" disallow="tram rail_urban rail rail_electric rail_fast ship" oneway="0"/>
    <type id="railway.highspeed" priority="21" numLanes="1" speed="69.44" allow="rail_fast" oneway="1"/>
    <type id="railway.light_rail" priority="19" numLanes="1" speed="27.78" allow="rail_urban" oneway="1"/>
    <type id="railway.preserved" priority="16" numLanes="1" speed="27.78" allow="rail" oneway="1"/>
    <type id="railway.rail" priority="20" numLanes="1" speed="44.44" allow="rail" oneway="1"/>
    <type id="railway.subway" priority="18" numLanes="1" speed="27.78" allow="rail_urban" oneway="1"/>
    <type id="railway.tram" priority="17" numLanes="1" speed="13.89" allow="tram" oneway="1"/>

    <edge id=":10127810693_0" function="internal">
        <lane id=":10127810693_0_0" index="0" disallow="tram rail_urban rail rail_electric rail_fast ship" speed="22.22" length="8.00" shape="3262.99,4426.04 3259.27,4433.13"/>
    </edge>
    <edge id=":10127810693_1" function="internal">
        <lane id=":10127810693_1_0" index="0" disallow="tram rail_urban rail rail_electric rail_fast ship" speed="22.22" length="8.40" shape="3256.43,4431.64 3257.14,4429.23 3256.88,4427.35 3256.62,4425.48 3257.32,4423.07"/>
        <lane id=":10127810693_1_1" index="1" disallow="tram rail_urban rail rail_electric rail_fast ship" speed="22.22" length="8.40" shape="3256.43,4431.64 3260.15,4424.55"/>
    </edge>
    <edge id=":10595909724_0" function="internal">
        <lane id=":10595909724_0_0" index="0" disallow="tram rail_urban rail rail_electric rail_fast ship" speed="27.78" length="8.61" shape="3919.19,2768.10 3916.78,2767.38 3914.91,2767.62 3913.03,2767.86 3910.63,2767.13"/>
        <lane id=":10595909724_0_1" index="1" disallow="tram rail_urban rail rail_electric rail_fast ship" speed="27.78" length="8.61" shape="3920.70,2765.28 3918.30,2764.56 3916.42,2764.80 3914.55,2765.04 3912.14,2764.31"/>
        <lane id=":10595909724_0_2" index="2" disallow="tram rail_urban rail rail_electric rail_fast ship" speed="27.78" length="8.61" shape="3922.22,2762.46 3919.81,2761.74 3917.94,2761.98 3916.06,2762.22 3913.65,2761.50"/>
        <lane id=":10595909724_0_3" index="3" disallow="tram rail_urban rail rail_electric rail_fast ship" speed="27.78" length="8.61" shape="3922.22,2762.46 3915.17,2758.68"/>
    </edge>
    <edge id=":10595909724_4" function="internal">
        <lane id=":10595909724_4_0" index="0" disallow="tram rail_urban rail rail_electric rail_fast ship" speed="27.78" length="8.60" shape="3919.71,2750.22 3922.12,2750.94 3923.99,2750.70 3925.87,2750.46 3928.27,2751.18"/>
        <lane id=":10595909724_4_1" index="1" disallow="tram rail_urban rail rail_electric rail_fast ship" speed="27.78" length="8.60" shape="3918.20,2753.04 3920.60,2753.76 3922.48,2753.52 3924.35,2753.28 3926.76,2754.00"/>
        <lane id=":10595909724_4_2" index="2" disallow="tram rail_urban rail rail_electric rail_fast ship" speed="27.78" length="8.60" shape="3916.68,2755.86 3919.09,2756.58 3920.96,2756.34 3922.84,2756.10 3925.24,2756.82"/>
        <lane id=":10595909724_4_3" index="3" disallow="tram rail_urban rail rail_electric rail_fast ship" speed="27.78" length="8.60" shape="3916.68,2755.86 3923.73,2759.64"/>
    </edge>
    <edge id=":10595909726_0" function="internal">
        <lane id=":10595909726_0_0" index="0" disallow="tram rail_urban rail rail_electric rail_fast ship" speed="27.78" length="8.61" shape="3807.10,2707.89 3804.69,2707.17 3802.82,2707.41 3800.94,2707.65 3798.53,2706.92"/>
        <lane id=":10595909726_0_1" index="1" disallow="tram rail_urban rail rail_electric rail_fast ship" speed="27.78" length="8.61" shape="3808.61,2705.07 3806.21,2704.35 3804.33,2704.59 3802.45,2704.83 3800.05,2704.10"/>
        <lane id=":10595909726_0_2" index="2" disallow="tram rail_urban rail rail_electric rail_fast ship" speed="27.78" length="8.61" shape="3810.13,2702.25 3807.72,2701.53 3805.85,2701.77 3803.97,2702.01 3801.56,2701.28"/>
        <lane id=":10595909726_0_3" index="3" disallow="tram rail_urban rail rail_electric rail_fast ship" speed="27.78" length="8.61" shape="3810.13,2702.25 3803.08,2698.47"/>
    </edge>
    <edge id=":10595909726_4" function="internal">
        <lane id=":10595909726_4_0" index="0" disallow="tram rail_urban rail rail_electric rail_fast ship" speed="27.78" length="8.60" shape="3807.62,2690.01 3810.03,2690.73 3811.90,2690.49 3813.78,2690.25 3816.18,2690.98"/>
        <lane id=":10595909726_4_1" index="1" disallow="tram rail_urban rail rail_electric rail_fast ship" speed="27.78" length="8.60" shape="3806.11,2692.83 3808.51,2693.55 3810.39,2693.31 3812.26,2693.07 3814.67,2693.80"/>
        <lane id=":10595909726_4_2" index="2" disallow="tram rail_urban rail rail_electric rail_fast ship" speed="27.78" length="8.60" shape="3804.59,2695.65 3807.00,2696.37 3808.87,2696.13 3810.75,2695.89 3813.16,2696.61"/>
        <lane id=":10595909726_4_3" index="3" disallow="tram rail_urban rail rail_electric rail_fast ship" speed="27.78" length="8.60" shape="3804.59,2695.65 3811.64,2699.43"/>
    </edge>
    <edge id=":11011836763_0" function="internal">
        <lane id=":11011836763_0_0" index="0" disallow="tram rail_urban rail rail_electric rail_fast ship" speed="22.22" length="8.00" shape="3419.90,3264.45 3412.67,3261.04"/>
        <lane id=":11011836763_0_1" index="1" disallow="tram rail_urban rail rail_electric rail_fast ship" speed="22.22" length="8.00" shape="3421.27,3261.55 3414.03,3258.14"/>
    </edge>
    <edge id=":11011836763_2" function="internal">
        <lane id=":11011836763_2_0" index="0" disallow="tram rail_urban rail rail_electric rail_fast ship" speed="22.22" length="8.54" shape="3416.76,3252.35 3419.20,3252.95 3421.06,3252.61 3422.92,3252.27 3425.36,3252.87"/>
        <lane id=":11011836763_2_1" index="1" disallow="tram rail_urban rail rail_electric rail_fast ship" speed="22.22" length="8.54" shape="3415.39,3255.25 3417.83,3255.84 3419.69,3255.51 3421.56,3255.17 3424.00,3255.76"/>
        <lane id=":11011836763_2_2" index="2" disallow="tram rail_urban rail rail_electric rail_fast ship" speed="22.22" length="8.54" shape="3415.39,3255.25 3422.63,3258.66"/>
    </edge>
    <edge id=":11011976568_0" function="internal">
        <lane id=":11011976568_0_0" index="0" disallow="tram rail_urban rail rail_electric rail_fast ship" speed="22.22" length="8.40" shape="4150.64,3078.70 4148.24,3077.98 4146.36,3078.22 4144.49,3078.47 4142.08,3077.75"/>
        <lane id=":11011976568_0_1" index="1" disallow="tram rail_urban rail rail_electric rail_fast ship" speed="22.22" length="8.40" shape="4150.64,3078.70 4143.59,3074.92"/>
    </edge>
    <edge id=":11011976568_2" function="internal">
        <lane id=":11011976568_2_0" index="0" disallow="tram rail_urban rail rail_electric rail_fast ship" speed="22.22" length="8.40" shape="4145.10,3072.10 4147.50,3072.82 4149.38,3072.58 4151.26,3072.33 4153.66,3073.06"/>
        <lane id=":11011976568_2_1" index="1" disallow="tram rail_urban rail rail_electric rail_fast ship" speed="22.22" length="8.40" shape="4145.10,3072.10 4152.15,3075.88"/>
    </edge>
    <edge id=":11012011754_0" function="internal">
        <lane id=":11012011754_0_0" index="0" disallow="tram rail_urban rail rail_electric rail_fast ship" speed="27.78" length="8.21" shape="3563.25,3758.71 3565.62,3759.13 3567.31,3759.04 3569.00,3758.96 3571.38,3759.38"/>
        <lane id=":11012011754_0_1" index="1" disallow="tram rail_urban rail rail_electric rail_fast ship" speed="27.78" length="8.21" shape="3562.36,3761.78 3564.74,3762.20 3566.43,3762.12 3568.12,3762.03 3570.49,3762.45"/>
        <lane id=":11012011754_0_2" index="2" disallow="tram rail_urban rail rail_electric rail_fast ship" speed="27.78" length="8.21" shape="3562.36,3761.78 3564.60,3762.68 3565.99,3763.66 3567.38,3764.63 3569.61,3765.53"/>
    </edge>
    <edge id=":11012222391_0" function="internal">
        <lane id=":11012222391_0_0" index="0" disallow="tram rail_urban rail rail_electric rail_fast ship" speed="22.22" length="8.00" shape="3241.91,3198.30 3240.75,3200.37 3239.88,3201.74 3238.94,3203.07 3237.57,3205.01"/>
    </edge>
    <edge id=":11012222391_1" function="internal">
        <lane id=":11012222391_1_0" index="0" disallow="tram rail_urban rail rail_electric rail_fast ship" speed="22.22" length="8.44" shape="3234.93,3203.20 3235.95,3200.89 3235.92,3199.02 3235.82,3197.10 3236.61,3194.65"/>
        <lane id=":11012222391_1_1" index="1" disallow="tram rail_urban rail rail_electric rail_fast ship" speed="22.22" length="8.44" shape="3234.93,3203.20 3236.30,3201.25 3237.24,3199.92 3238.10,3198.55 3239.26,3196.48"/>
    </edge>
    <edge id=":11012222392_0" function="internal">
        <lane id=":11012222392_0_0" index="0" disallow="tram rail_urban rail rail_electric rail_fast ship" speed="22.22" length="8.00" shape="3206.89,3157.24 3199.90,3153.35"/>
        <lane id=":11012222392_0_1" index="1" disallow="tram rail_urban rail rail_electric rail_fast ship" speed="22.22" length="8.00" shape="3208.45,3154.44 3201.45,3150.55"/>
        <lane id=":11012222392_0_2" index="2" disallow="tram rail_urban rail rail_electric rail_fast ship" speed="22.22" length="8.00" shape="3210.00,3151.64 3203.01,3147.76"/>
    </edge>
    <edge id=":11012222392_3" function="internal">
        <lane id=":11012222392_3_0" index="0" disallow="tram rail_urban rail rail_electric rail_fast ship" speed="22.22" length="9.63" shape="3206.11,3142.16 3208.95,3142.59 3211.16,3141.31 3213.38,3140.02 3216.22,3140.45"/>
        <lane id=":11012222392_3_1" index="1" disallow="tram rail_urban rail rail_electric rail_fast ship" speed="22.22" length="9.63" shape="3204.56,3144.96 3207.40,3145.39 3209.61,3144.10 3211.82,3142.82 3214.66,3143.25"/>
        <lane id=":11012222392_3_2" index="2" disallow="tram rail_urban rail rail_electric rail_fast ship" speed="22.22" length="9.63" shape="3204.56,3144.96 3206.96,3145.72 3208.83,3145.50 3210.71,3145.29 3213.11,3146.05"/>
        <lane id=":11012222392_3_3" index="3" disallow="tram rail_urban rail rail_electric rail_fast ship" speed="22.22" length="9.63" shape="3204.56,3144.96 3211.55,3148.84"/>
    </edge>
    <edge id=":11012234776_0" function="internal">
        <lane id=":11012234776_0_0" index="0" disallow="tram rail_urban rail rail_electric rail_fast ship" speed="22.22" length="7.99" shape="3581.99,3829.08 3578.23,3836.13"/>
    </edge>
    <edge id=":11012234776_1" function="internal">
        <lane id=":11012234776_1_0" index="0" disallow="tram rail_urban rail rail_electric rail_fast ship" speed="22.22" length="8.41" shape="3575.40,3834.63 3576.12,3832.22 3575.87,3830.34 3575.63,3828.46 3576.35,3826.05"/>
        <lane id=":11012234776_1_1" index="1" disallow="tram rail_urban rail rail_electric rail_fast ship" speed="22.22" length="8.41" shape="3575.40,3834.63 3579.17,3827.57"/>
    </edge>
    <edge id=":11012382786_0" function="internal">
        <lane id=":11012382786_0_0" index="0" disallow="tram rail_urban rail rail_electric rail_fast ship" speed="13.89" length="8.00" shape="3736.67,3705.38 3729.47,3701.90"/>
    </edge>
    <edge id=":11012382786_1" function="internal">
        <lane id=":11012382786_1_0" index="0" disallow="tram rail_urban rail rail_electric rail_fast ship" speed="13.89" length="8.40" shape="3730.86,3699.02 3733.30,3699.64 3735.16,3699.32 3737.03,3699.00 3739.46,3699.62"/>
        <lane id=":11012382786_1_1" index="1" disallow="tram rail_urban rail rail_electric rail_fast ship" speed="13.89" length="8.40" shape="3730.86,3699.02 3738.07,3702.50"/>
    </edge>
    <edge id=":11015389507_0" function="internal">
        <lane id=":11015389507_0_0" index="0" disallow="tram rail_urban rail rail_electric rail_fast ship" speed="22.22" length="8.40" shape="3796.26,3420.97 3795.61,3423.40 3795.92,3425.26 3796.22,3427.13 3795.57,3429.56"/>
        <lane id=":11015389507_0_1" index="1" disallow="tram rail_urban rail rail_electric rail_fast ship" speed="22.22" length="8.40" shape="3796.26,3420.97 3792.70,3428.13"/>
    </edge>
    <edge id=":11015389507_2" function="internal">
        <lane id=":11015389507_2_0" index="0" disallow="tram rail_urban rail rail_electric rail_fast ship" speed="22.22" length="8.00" shape="3789.84,3426.71 3793.40,3419.55"/>
    </edge>
    <edge id=":11015389508_0" function="internal">
        <lane id=":11015389508_0_0" index="0" disallow="tram rail_urban rail rail_electric rail_fast ship" speed="22.22" length="8.40" shape="3828.85,3356.28 3828.17,3358.70 3828.45,3360.57 3828.73,3362.44 3828.05,3364.86"/>
        <lane id=":11015389508_0_1" index="1" disallow="tram rail_urban rail rail_electric rail_fast ship" speed="22.22" length="8.40" shape="3828.85,3356.28 3825.20,3363.40"/>
    </edge>
    <edge id=":11015389508_2" function="internal">
        <lane id=":11015389508_2_0" index="0" disallow="tram rail_urban rail rail_electric rail_fast ship" speed="22.22" length="8.00" shape="3822.35,3361.94 3826.00,3354.82"/>
    </edge>
    <edge id=":11015389509_0" function="internal">
        <lane id=":11015389509_0_0" index="0" disallow="tram rail_urban rail rail_electric rail_fast ship" speed="22.22" length="8.00" shape="3851.21,3312.61 3847.56,3319.73"/>
    </edge>
    <edge id=":11015389509_1" function="internal">
        <lane id=":11015389509_1_0" index="0" disallow="tram rail_urban rail rail_electric rail_fast ship" speed="22.22" length="8.40" shape="3844.71,3318.27 3845.39,3315.85 3845.11,3313.98 3844.83,3312.11 3845.51,3309.69"/>
        <lane id=":11015389509_1_1" index="1" disallow="tram rail_urban rail rail_electric rail_fast ship" speed="22.22" length="8.40" shape="3844.71,3318.27 3848.36,3311.15"/>
    </edge>
    <edge id=":11016064735_0" function="internal">
        <lane id=":11016064735_0_0" index="0" disallow="tram rail_urban rail rail_electric rail_fast ship" speed="22.22" length="8.40" shape="3632.00,3734.91 3631.30,3737.32 3631.55,3739.20 3631.80,3741.07 3631.09,3743.48"/>
        <lane id=":11016064735_0_1" index="1" disallow="tram rail_urban rail rail_electric rail_fast ship" speed="22.22" length="8.40" shape="3632.00,3734.91 3628.26,3741.98"/>
    </edge>
    <edge id=":11016064735_2" function="internal">
        <lane id=":11016064735_2_0" index="0" disallow="tram rail_urban rail rail_electric rail_fast ship" speed="22.22" length="8.00" shape="3625.44,3740.49 3629.18,3733.42"/>
    </edge>
    <edge id=":1440836497_0" function="internal">
        <lane id=":1440836497_0_0" index="0" disallow="tram rail_urban rail rail_electric rail_fast ship" speed="22.22" length="11.85" shape="3357.29,3234.15 3346.80,3228.62"/>
        <lane id=":1440836497_0_1" index="1" disallow="tram rail_urban rail rail_electric rail_fast ship" speed="22.22" length="11.85" shape="3358.78,3231.32 3348.29,3225.79"/>
    </edge>
    <edge id=":1440836497_2" function="internal">
        <lane id=":1440836497_2_0" index="0" disallow="tram rail_urban rail rail_electric rail_fast ship" speed="8.20" length="2.66" shape="3358.78,3231.32 3356.84,3229.51"/>
    </edge>
    <edge id=":1440836497_3" function="internal">
        <lane id=":1440836497_3_0" index="0" disallow="tram rail_urban rail rail_electric rail_fast ship" speed="3.65" length="1.44" shape="3358.78,3231.32 3358.09,3230.05"/>
    </edge>
    <edge id=":1440836497_14" function="internal">
        <lane id=":1440836497_14_0" index="0" disallow="tram rail_urban rail rail_electric rail_fast ship" speed="8.20" length="12.42" shape="3356.84,3229.51 3356.69,3229.36 3356.01,3226.45 3356.75,3222.58 3358.90,3217.76"/>
    </edge>
    <edge id=":1440836497_15" function="internal">
        <lane id=":1440836497_15_0" index="0" disallow="tram rail_urban rail rail_electric rail_fast ship" speed="3.65" length="3.23" shape="3358.09,3230.05 3358.11,3229.16 3358.84,3228.64 3360.28,3228.49"/>
    </edge>
    <edge id=":1440836497_4" function="internal">
        <lane id=":1440836497_4_0" index="0" disallow="tram rail_urban rail rail_electric rail_fast ship" speed="5.84" length="7.11" shape="3361.72,3219.28 3360.72,3221.54 3360.39,3223.35 3360.75,3224.72 3361.77,3225.66"/>
    </edge>
    <edge id=":1440836497_5" function="internal">
        <lane id=":1440836497_5_0" index="0" disallow="tram rail_urban rail rail_electric rail_fast ship" speed="8.70" length="16.85" shape="3361.72,3219.28 3358.73,3223.66 3355.50,3226.20 3352.02,3226.91 3348.29,3225.79"/>
    </edge>
    <edge id=":1440836497_6" function="internal">
        <lane id=":1440836497_6_0" index="0" disallow="tram rail_urban rail rail_electric rail_fast ship" speed="3.65" length="1.44" shape="3361.72,3219.28 3360.44,3219.96"/>
    </edge>
    <edge id=":1440836497_16" function="internal">
        <lane id=":1440836497_16_0" index="0" disallow="tram rail_urban rail rail_electric rail_fast ship" speed="3.65" length="3.23" shape="3360.44,3219.96 3359.55,3219.93 3359.03,3219.20 3358.90,3217.76"/>
    </edge>
    <edge id=":1440836497_7" function="internal">
        <lane id=":1440836497_7_0" index="0" disallow="tram rail_urban rail rail_electric rail_fast ship" speed="6.55" length="9.08" shape="3351.28,3220.13 3353.60,3220.96 3355.65,3220.84 3357.42,3219.78 3358.90,3217.76"/>
    </edge>
    <edge id=":1440836497_8" function="internal">
        <lane id=":1440836497_8_0" index="0" disallow="tram rail_urban rail rail_electric rail_fast ship" speed="22.22" length="11.86" shape="3351.28,3220.13 3361.77,3225.66"/>
        <lane id=":1440836497_8_1" index="1" disallow="tram rail_urban rail rail_electric rail_fast ship" speed="22.22" length="11.86" shape="3349.79,3222.96 3360.28,3228.49"/>
    </edge>
    <edge id=":1440836497_10" function="internal">
        <lane id=":1440836497_10_0" index="0" disallow="tram rail_urban rail rail_electric rail_fast ship" speed="3.65" length="1.44" shape="3349.79,3222.96 3350.47,3224.23"/>
    </edge>
    <edge id=":1440836497_17" function="internal">
        <lane id=":1440836497_17_0" index="0" disallow="tram rail_urban rail rail_electric rail_fast ship" speed="3.65" length="3.23" shape="3350.47,3224.23 3350.46,3225.12 3349.73,3225.64 3348.29,3225.79"/>
    </edge>
    <edge id=":1440836497_11" function="internal">
        <lane id=":1440836497_11_0" index="0" disallow="tram rail_urban rail rail_electric rail_fast ship" speed="6.70" length="9.34" shape="3349.35,3236.49 3350.12,3234.04 3349.95,3231.92 3348.85,3230.11 3346.80,3228.62"/>
    </edge>
    <edge id=":1440836497_12" function="internal">
        <lane id=":1440836497_12_0" index="0" disallow="tram rail_urban rail rail_electric rail_fast ship" speed="25.00" length="21.02" shape="3349.35,3236.49 3358.90,3217.76"/>
    </edge>
    <edge id=":1440836497_13" function="internal">
        <lane id=":1440836497_13_0" index="0" disallow="tram rail_urban rail rail_electric rail_fast ship" speed="7.60" length="13.08" shape="3352.23,3237.88 3354.68,3233.21 3356.84,3230.09 3358.70,3228.51 3360.28,3228.49"/>
    </edge>
    <edge id=":1443059060_0" function="internal">
        <lane id=":1443059060_0_0" index="0" disallow="tram rail_urban rail rail_electric rail_fast ship" speed="22.22" length="8.02" shape="3387.72,3249.16 3385.95,3247.74 3385.22,3246.16 3384.50,3244.57 3382.73,3243.15"/>
    </edge>
    <edge id=":1443059060_1" function="internal">
        <lane id=":1443059060_1_0" index="0" disallow="tram rail_urban rail rail_electric rail_fast ship" speed="22.22" length="8.44" shape="3384.14,3240.28 3386.79,3240.46 3388.74,3238.97 3390.69,3237.48 3393.34,3237.66"/>
        <lane id=":1443059060_1_1" index="1" disallow="tram rail_urban rail rail_electric rail_fast ship" speed="22.22" length="8.44" shape="3384.14,3240.28 3386.34,3240.80 3388.04,3240.41 3389.73,3240.01 3391.94,3240.53"/>
        <lane id=":1443059060_1_2" index="2" disallow="tram rail_urban rail rail_electric rail_fast ship" speed="22.22" length="8.44" shape="3384.14,3240.28 3390.53,3243.41"/>
    </edge>
    <edge id=":1443059085_0" function="internal">
        <lane id=":1443059085_0_0" index="0" disallow="tram rail_urban rail rail_electric rail_fast ship" speed="8.71" length="7.45" shape="3280.60,3434.26 3282.40,3432.58 3283.70,3431.03 3284.49,3429.61 3284.78,3428.30"/>
    </edge>
    <edge id=":1443059085_1" function="internal">
        <lane id=":1443059085_1_0" index="0" disallow="tram rail_urban rail rail_electric rail_fast ship" speed="27.78" length="7.86" shape="3284.54,3436.16 3284.78,3428.30"/>
        <lane id=":1443059085_1_1" index="1" disallow="tram rail_urban rail rail_electric rail_fast ship" speed="27.78" length="7.86" shape="3287.73,3436.26 3287.98,3428.41"/>
    </edge>
    <edge id=":1443059109_0" function="internal">
        <lane id=":1443059109_0_0" index="0" disallow="tram rail_urban rail rail_electric rail_fast ship" speed="13.89" length="6.49" shape="3262.95,3444.02 3261.22,3443.27 3259.89,3443.07 3258.55,3442.90 3256.78,3442.20"/>
    </edge>
    <edge id=":1443059109_1" function="internal">
        <lane id=":1443059109_1_0" index="0" disallow="tram rail_urban rail rail_electric rail_fast ship" speed="4.89" length="2.34" shape="3262.95,3444.02 3261.04,3442.68"/>
    </edge>
    <edge id=":1443059109_4" function="internal">
        <lane id=":1443059109_4_0" index="0" disallow="tram rail_urban rail rail_electric rail_fast ship" speed="4.89" length="5.98" shape="3261.04,3442.68 3260.63,3442.39 3260.02,3441.22 3261.14,3440.52 3263.97,3440.29"/>
    </edge>
    <edge id=":1443059109_2" function="internal">
        <lane id=":1443059109_2_0" index="0" disallow="tram rail_urban rail rail_electric rail_fast ship" speed="12.02" length="5.86" shape="3258.29,3439.38 3259.84,3440.10 3261.00,3440.34 3262.23,3440.34 3263.97,3440.29"/>
    </edge>
    <edge id=":1443059109_3" function="internal">
        <lane id=":1443059109_3_0" index="0" disallow="tram rail_urban rail rail_electric rail_fast ship" speed="3.65" length="1.32" shape="3258.29,3439.38 3258.92,3440.55"/>
    </edge>
    <edge id=":1443059109_5" function="internal">
        <lane id=":1443059109_5_0" index="0" disallow="tram rail_urban rail rail_electric rail_fast ship" speed="3.65" length="3.35" shape="3258.92,3440.55 3258.97,3440.66 3258.95,3441.55 3258.22,3442.07 3256.78,3442.20"/>
    </edge>
    <edge id=":1443059112_0" function="internal">
        <lane id=":1443059112_0_0" index="0" disallow="tram rail_urban rail rail_electric rail_fast ship" speed="22.22" length="5.89" shape="3363.68,3233.78 3361.92,3233.48 3360.56,3234.04 3359.20,3234.59 3357.46,3234.24"/>
        <lane id=":1443059112_0_1" index="1" disallow="tram rail_urban rail rail_electric rail_fast ship" speed="22.22" length="5.89" shape="3363.68,3233.78 3358.96,3231.42"/>
    </edge>
    <edge id=":1443059112_2" function="internal">
        <lane id=":1443059112_2_0" index="0" disallow="tram rail_urban rail rail_electric rail_fast ship" speed="22.22" length="6.30" shape="3361.95,3225.76 3363.18,3226.97 3363.51,3228.36 3363.84,3229.74 3365.10,3230.91"/>
    </edge>
    <edge id=":1443059122_0" function="internal">
        <lane id=":1443059122_0_0" index="0" disallow="tram rail_urban rail rail_electric rail_fast ship" speed="6.17" length="9.05" shape="3285.60,3371.39 3287.97,3372.31 3289.95,3372.17 3291.53,3370.97 3292.72,3368.72"/>
    </edge>
    <edge id=":1443059122_1" function="internal">
        <lane id=":1443059122_1_0" index="0" disallow="tram rail_urban rail rail_electric rail_fast ship" speed="3.65" length="4.67" shape="3285.60,3371.39 3286.25,3372.67 3286.21,3373.57 3285.47,3374.07 3284.03,3374.18"/>
    </edge>
    <edge id=":1443059122_2" function="internal">
        <lane id=":1443059122_2_0" index="0" disallow="tram rail_urban rail rail_electric rail_fast ship" speed="8.84" length="13.29" shape="3291.66,3384.09 3291.56,3381.57 3290.25,3379.08 3287.74,3376.62 3284.03,3374.18"/>
    </edge>
    <edge id=":1443059122_3" function="internal">
        <lane id=":1443059122_3_0" index="0" disallow="tram rail_urban rail rail_electric rail_fast ship" speed="27.78" length="14.66" shape="3291.66,3384.09 3292.55,3379.76 3293.30,3376.83 3294.25,3373.95 3295.73,3369.79"/>
        <lane id=":1443059122_3_1" index="1" disallow="tram rail_urban rail rail_electric rail_fast ship" speed="27.78" length="14.66" shape="3294.80,3384.71 3295.67,3380.52 3296.39,3377.68 3297.31,3374.89 3298.75,3370.86"/>
    </edge>
    <edge id=":1443059128_0" function="internal">
        <lane id=":1443059128_0_0" index="0" disallow="tram rail_urban rail rail_electric rail_fast ship" speed="6.85" length="5.37" shape="3281.02,3457.40 3280.76,3456.04 3280.22,3454.86 3279.39,3453.85 3278.28,3453.03"/>
    </edge>
    <edge id=":1443059128_1" function="internal">